         263
Energy of minimum  1=    32229.9149041515 first found at step     1831
LA        -0.8576806044       -0.1060906919       -0.5031190176
LA         0.8951890887        0.0506673126        0.4427971532
LA         0.8845006738        0.4157005311        0.2117820257
LA        -0.0155349886        0.3229012591       -0.9463051522
LA         0.8959858577       -0.4191831180        0.1466112422
LA         0.0539292613       -0.8508360879        0.5226562793
LA         0.6426779929        0.1906251493        0.7420424852
LA        -0.8619317931       -0.2127384846        0.4602346372
LA        -0.8284051350       -0.4989817089       -0.2544841577
LA        -0.5720677148       -0.7720667138        0.2768601075
LA        -0.8909354742        0.1093731480       -0.4407624022
LA         0.9200533112       -0.2470772042       -0.3040637428
LA         0.3495771347       -0.3849474123       -0.8541728845
LA         0.7624100543        0.5088874832        0.3997054398
LA        -0.0135585874        0.6951101595        0.7187753689
LA         0.7524812450       -0.3666208105        0.5471390658
LA         0.3764629309       -0.0411629082        0.9255167619
LA        -0.9928010446       -0.0859392792       -0.0834297681
LA         0.9591773086        0.2784476234        0.0494551491
LA        -0.0943666041       -0.8240982569       -0.5585311155
LA        -0.2506811897       -0.2112558169        0.9447380171
LA        -0.1789759871       -0.6784607664       -0.7125016382
LA         0.2335612418        0.8399756387        0.4897857416
LA         0.3820218899        0.0619526819       -0.9220743684
LA        -0.3455546112        0.7388113374       -0.5785756807
LA        -0.0564737236       -0.3480502848       -0.9357733261
LA        -0.3595746256       -0.0026828393        0.9331124750
LA         0.0080716387       -0.9926535425       -0.1207219667
LA         0.7112606534       -0.2404652858       -0.6605185306
LA         0.5663309785       -0.0915468907       -0.8190777677
LA         0.6217835803        0.6824601265        0.3842308616
LA        -0.4952903930        0.8316449218        0.2511058556
LA        -0.2233420386        0.1625653252        0.9610883668
LA        -0.7473513850       -0.6515975197        0.1299483730
LA         0.3794884699       -0.9050201254       -0.1921641845
LA         0.5814534951       -0.0217735892        0.8132882293
LA        -0.2003262696        0.9794912189       -0.0215948566
LA         0.6903177494       -0.5781361113       -0.4349943007
LA         0.2162634463       -0.9756164240       -0.0374528364
LA        -0.0132941500       -0.5767189648       -0.8168344393
LA        -0.0127828121        0.5201973975       -0.8539503893
LA         0.8495084280       -0.5249269597       -0.0527931603
LA         0.0147815923        0.9068269560       -0.4212438443
LA         0.2349466088       -0.9522809077        0.1948362489
LA         0.7294658654       -0.0173271881       -0.6837977184
LA         0.3429341305        0.7149841823       -0.6092567614
LA        -0.2475374149       -0.2351721136       -0.9399038808
LA        -0.6022572754        0.5142885582        0.6105681396
LA        -0.5454117355        0.6358561713       -0.5460887915
LA        -0.8372741053        0.5007244136        0.2196523031
LA        -0.9307808227       -0.0259175548        0.3646578403
LA         0.9401765377       -0.3285519555       -0.0901204220
LA         0.6143891022        0.7525472903       -0.2370624538
LA        -0.7497233907        0.3370358424        0.5694924744
LA        -0.1342169645       -0.4014860395        0.9059772439
LA        -0.1843115275       -0.9471165875        0.2626774268
LA         0.4390397496       -0.5965739556        0.6718211174
LA         0.1404689190       -0.4377342389       -0.8880637471
LA        -0.2191140614       -0.4797573245       -0.8496010462
LA        -0.5594329961        0.6899555385        0.4593430937
LA        -0.4393572089        0.4771943810        0.7610852552
LA        -0.4173746083        0.5496163112       -0.7236852540
LA         0.8426628340       -0.4626842216       -0.2753954600
LA        -0.0243831848       -0.5719018876        0.8199595668
LA         0.4891455344       -0.2288345728        0.8416480170
LA         0.1460481575       -0.0601189515        0.9874490606
LA        -0.0780900589        0.9833607693        0.1640229866
LA        -0.2048347368        0.7764551730        0.5959530979
LA         0.5496092631       -0.7667248925       -0.3317568344
LA         0.0348433143       -0.9453567864        0.3241704642
LA         0.4058674374        0.8797066916       -0.2477655345
LA         0.5960113343        0.7849444744        0.1692118833
LA         0.9255973450        0.2121360632       -0.3134770258
LA         0.4466005233       -0.5429285356       -0.7111797085
LA         0.0199342021       -0.9940540374        0.1070476447
LA        -0.7297230424       -0.2907169098        0.6188602102
LA         0.2555479301        0.1539527601        0.9544599536
LA        -0.2546113689       -0.8742407399       -0.4133717208
LA        -0.4269282853       -0.1079295242       -0.8978215062
LA         0.1767959208       -0.9442778783       -0.2776373372
LA         0.1910498183        0.2100855780       -0.9588347182
LA        -0.2337889373        0.6092094270        0.7577642159
LA        -0.5542800088       -0.6206787172       -0.5545553191
LA         0.5618804417       -0.8200536781       -0.1086385487
LA         0.2083548132        0.7135744243        0.6688795204
LA         0.7100179787        0.3896132692        0.5865798926
LA         0.6330460327       -0.4623185286       -0.6208979776
LA         0.2625666007       -0.2450874267        0.9332689502
LA         0.0733436051       -0.7333286535       -0.6759066515
LA        -0.0385157768       -0.9346592492       -0.3534524337
LA        -0.2943701005        0.9313492566        0.2143240680
LA        -0.4239408684        0.1347459554       -0.8956102208
LA         0.4025823884        0.9077879671        0.1176793415
LA        -0.0414012181        0.5204569521        0.8528836381
LA        -0.8710931423        0.3334349738        0.3605798882
LA         0.4523141588        0.8211468777        0.3480369335
LA         0.0850955667       -0.7157103231        0.6931936799
LA        -0.6727880787        0.6874998909        0.2733131924
LA        -0.7257627069       -0.1063411098       -0.6796764390
LA        -0.4331489655        0.3502440305       -0.8304884664
LA        -0.0034760199        0.6937934613       -0.7201656410
LA        -0.9396939972        0.3123885551       -0.1392428892
LA        -0.3773603573       -0.8356294924        0.3991522419
LA         0.7126967672        0.2083178901       -0.6698260780
LA         0.5416343096        0.3931436089        0.7430143857
LA        -0.9355143424       -0.3046491333       -0.1788905272
LA        -0.9914246186        0.1305454683        0.0059250658
LA        -0.0421966243       -0.1230430732       -0.9915038311
LA        -0.1143993755       -0.0422787181        0.9925347817
LA        -0.4205348647        0.2428185104        0.8741793858
LA         0.0052535935       -0.2353326328        0.9719006902
LA        -0.1319442522       -0.7391210927        0.6605230690
LA         0.2534701932       -0.8751456501        0.4121564656
LA         0.1317759805        0.8009670603       -0.5840264200
LA        -0.3431653799       -0.7427685515       -0.5749194735
LA         0.5933890922       -0.7922081055        0.1424629877
LA        -0.2297929976        0.4456573415       -0.8652079012
LA         0.8571333700        0.5149666996        0.0114753772
LA        -0.1651408279        0.9029733158        0.3966959766
LA         0.0131940083        0.8367558714        0.5474171443
LA        -0.3374949503        0.9194684312       -0.2016803475
LA        -0.7700457256        0.3060397160       -0.5597939556
LA        -0.2156532899        0.6363649247       -0.7406303675
LA         0.5104398568       -0.6731093844       -0.5351400838
LA        -0.4554627299        0.8023409262       -0.3857495818
LA         0.1641411668       -0.2304589032       -0.9591383484
LA         0.8215270021        0.2839128487       -0.4944561448
LA         0.7954601930       -0.3721234794       -0.4782961398
LA         0.1757362120       -0.0128096898       -0.9843539483
LA         0.3924496404        0.2923306059       -0.8720814736
LA        -0.8780231979        0.3173279643       -0.3582990748
LA        -0.5410955749        0.8231076555       -0.1723640515
LA        -0.6460638108        0.6800662399       -0.3465710053
LA         0.9484073723       -0.0183016495       -0.3165256796
LA         0.5304301156        0.5939587252       -0.6048610793
LA        -0.7275874362       -0.4960785739       -0.4738381276
LA         0.4690181044       -0.7407279376        0.4809824739
LA         0.1559091181        0.9547447133       -0.2532881349
LA        -0.3971664737       -0.8847060844       -0.2440367522
LA         0.5733566088       -0.4153659336        0.7062105496
LA        -0.6527649988       -0.5024994806        0.5669145688
LA        -0.7115589432       -0.6093572893        0.3498107550
LA        -0.7425102790       -0.3099411613       -0.5938139120
LA        -0.2646387711        0.4074856309        0.8740261904
LA        -0.7469333412       -0.6580382464       -0.0952693553
LA         0.3926871555        0.5093195468       -0.7657613187
LA         0.4867589052        0.7584698207       -0.4333466272
LA         0.8641257518        0.3020327741        0.4025703522
LA        -0.9879169785       -0.0594255932        0.1431385431
LA        -0.7153272744        0.1320636304        0.6861968290
LA         0.2635381037        0.9205908110        0.2882017117
LA         0.9150889136        0.3733848789       -0.1523023713
LA         0.6269945920       -0.5660998671        0.5351716754
LA        -0.9674918000        0.1096480458       -0.2278967376
LA         0.3757619673       -0.1639546958       -0.9120974738
LA        -0.3615216174       -0.3923007598        0.8458145388
LA         0.2362753711       -0.5975441589       -0.7662342508
LA        -0.2287839050        0.2360153581       -0.9444335210
LA        -0.2382311469        0.0040411054       -0.9712000773
LA        -0.8067689815       -0.4214638247        0.4141159921
LA         0.8230018499        0.4481485702       -0.3490427109
LA         0.1803021001        0.5481213609        0.8167338162
LA        -0.4940764264       -0.7700163059       -0.4036872223
LA         0.0485503646        0.9379588032        0.3433309564
LA        -0.2516518473       -0.5784318410        0.7759432666
LA         0.7739582884       -0.6075545245        0.1785106932
LA         0.7932395587        0.1869867963        0.5794885163
LA         0.1350316165       -0.8598814765       -0.4923111912
LA         0.9962892647        0.0247650075        0.0824281230
LA        -0.1663545210       -0.8661214405        0.4713383325
LA        -0.4645891641       -0.5552628346        0.6898116360
LA         0.3917559723        0.5697287589        0.7224516589
LA         0.7599738847        0.6195290723        0.1965284285
LA         0.9880475484       -0.1068319477       -0.1111259516
LA        -0.9583797591       -0.2823503175        0.0422674281
LA         0.3718921733       -0.4185994367        0.8285352878
LA        -0.7282600423        0.5025789275       -0.4658881115
LA        -0.6775714191       -0.6583399590       -0.3278497681
LA         0.0301775558        0.9973079158       -0.0668299049
LA        -0.1249620700        0.8081137484       -0.5756184941
LA        -0.5929727531       -0.8031486345        0.0577545236
LA        -0.8677287026        0.4954834627       -0.0392815086
LA        -0.4097101215        0.6659057535        0.6234638271
LA        -0.4725141407       -0.1801139498        0.8627220595
LA        -0.8738572795       -0.4855060214       -0.0256389984
LA        -0.8046283032       -0.0463758236        0.5919650130
LA        -0.1960378429       -0.9797265259        0.0412928397
LA         0.9543291586       -0.0857906118        0.2861744713
LA        -0.4052162409       -0.9137975015       -0.0278194952
LA         0.7844620659       -0.4979162116        0.3697278910
LA        -0.9472619840       -0.1048214606       -0.3028319586
LA         0.8452697947       -0.1639510432        0.5085656590
LA        -0.3917580155       -0.5697299290       -0.7224496282
LA         0.7819687734        0.5931143925       -0.1916772154
LA        -0.6544319351       -0.1148575368        0.7473463646
LA        -0.8618380002       -0.4671913042        0.1974019927
LA         0.5645026274        0.3695534033       -0.7380833732
LA        -0.5848939595       -0.7939256194       -0.1660757871
LA        -0.9570088865        0.1574976803        0.2435743663
LA         0.6361446786       -0.6919838750        0.3412891217
LA        -0.3704997498        0.8196752179        0.4368780981
LA        -0.3416365946       -0.7258255367        0.5970441588
LA         0.7203819782       -0.6541581030       -0.2304929103
LA        -0.2408064947        0.8822400097       -0.4045550611
LA        -0.5630048674       -0.3553739178        0.7461467000
LA         0.7168877692       -0.6970487080       -0.0139651371
LA        -0.7197781161        0.6799765856       -0.1398259867
LA         0.3054640833       -0.7352634032       -0.6050449750
LA         0.6717661438        0.6163536406       -0.4108995471
LA         0.4215595771        0.7217142073        0.5490137757
LA        -0.4117856843        0.9110285629        0.0214361316
LA        -0.6153851814        0.2382610577       -0.7513539425
LA         0.9717943803       -0.2115145169        0.1042942545
LA         0.3534409511       -0.8400635159       -0.4115492478
LA        -0.3951197270       -0.8993033788        0.1874402153
LA        -0.5390773371       -0.6840668329        0.4913737811
LA        -0.5928124992        0.3093680918        0.7435487372
LA         0.1422562047        0.3495334906        0.9260612891
LA        -0.7376934337        0.5228343344        0.4271447724
LA         0.2725767620        0.8628012829       -0.4257650233
LA        -0.5991709884        0.7990253863        0.0505228526
LA         0.8569021368        0.0666760836       -0.5111487335
LA         0.8513375628       -0.1525535399       -0.5019479770
LA        -0.7664204471        0.1032322116       -0.6339895967
LA        -0.7580992960        0.6477938691        0.0751569056
LA         0.5244489193        0.8496464742       -0.0552648161
LA        -0.8194445138        0.5106631363       -0.2602572767
LA        -0.0743208871        0.3211998693        0.9440905940
LA         0.3502196970        0.3767940229        0.8575385870
LA        -0.4084067490       -0.3611691607       -0.8383082755
LA        -0.9373023709        0.3320502874        0.1058625150
LA         0.9846199650        0.1283366842       -0.1185462777
LA        -0.1995793847       -0.9623043281       -0.1847659314
LA        -0.6062593611        0.4413862216       -0.6615344212
LA        -0.5812220578       -0.4404571037       -0.6842356753
LA         0.2011124146        0.6199332304       -0.7584435289
LA         0.4359689520       -0.8534816039        0.2854824421
LA         0.8923681103       -0.3001831584        0.3370003369
LA         0.1502106486        0.9822784161        0.1120976108
LA         0.4152096882       -0.9082570584        0.0516723388
LA         0.1222251460       -0.4167688971        0.9007578476
LA         0.1995971414        0.4250695619       -0.8828798609
LA        -0.5932946702        0.0216564779       -0.8046939985
LA         0.5830827916        0.5699367335        0.5789530015
LA         0.4612619682        0.1777766890        0.8692714453
LA         0.2324249874       -0.5791801540        0.7813635354
LA         0.9542459371        0.1667344166        0.2482223315
LA        -0.5784696342       -0.2323910173       -0.7818998001
LA         0.2818720026       -0.7496366484        0.5988264102
LA         0.7071753604        0.7068895258       -0.0144985473
LA         0.0292342902        0.1298197184        0.9911065518
LA         0.6783617280       -0.2165580191        0.7020883066
LA         0.5631411465        0.1360209542       -0.8150891664
LA         0.2864758618        0.9554397927       -0.0711785307
LA        -0.5522725809        0.0667742456        0.8309850760
LA        -0.8597467275        0.1505430712        0.4880290445
LA         0.7551728409       -0.0164228248        0.6553199762
LA        -0.9317332053       -0.2566095312        0.2569528804
LA        -0.0278925842        0.1049663300       -0.9940845403
LA        -0.1049190605        0.9651450495       -0.2397645181
LA         0.5402332979       -0.3155709158       -0.7801044680
LA         0.6916840715        0.4471062152       -0.5671588644
LA        -0.8629661077       -0.3146794370       -0.3953053868
