         572
Energy of minimum  1=   156036.2192910678 first found at step     3122
LA        -0.7872805029        0.1739080463        0.5915618321
LA         0.1524389411        0.9808419170       -0.1212909856
LA        -0.5996719255       -0.4846197227       -0.6368181107
LA        -0.4542821891        0.6996792509       -0.5514314450
LA        -0.3303793483       -0.2608655694        0.9070824885
LA         0.9214413882        0.1535539240       -0.3568850803
LA         0.7058839966        0.4549395548       -0.5429160016
LA         0.1619911021       -0.9220018966        0.3516694265
LA        -0.1295884182        0.9127920962        0.3873208372
LA         0.6222195352        0.2387574449       -0.7455452585
LA         0.6545715037       -0.6065596972       -0.4512443688
LA        -0.7087383671        0.3007689166        0.6381441732
LA        -0.6285034742       -0.6521305492       -0.4239211363
LA         0.4884519656        0.4687138614        0.7360176584
LA         0.5729358178       -0.4624657990        0.6766608703
LA         0.9231276115       -0.3715882442        0.0987805123
LA        -0.2954392938        0.7537470224       -0.5870102639
LA         0.9514786730       -0.1557095179       -0.2654107774
LA         0.4223058550       -0.7628936541       -0.4895416605
LA         0.5932118234        0.8044617540        0.0306760311
LA        -0.2612969358       -0.1278515010        0.9567538372
LA        -0.0675328932        0.3970757258       -0.9152978621
LA        -0.7657151306        0.5668724833        0.3038682716
LA        -0.9460145177       -0.1002007149        0.3082472206
LA         0.6982342233        0.6462152023       -0.3080176646
LA        -0.7274993242        0.4198365394        0.5426619697
LA        -0.2804389023        0.8912065680        0.3565177067
LA         0.4875012484        0.2569705630       -0.8344511145
LA         0.7850825099        0.3231850894       -0.5283908124
LA        -0.5349647875        0.0574797720       -0.8429168120
LA         0.0216897508        0.9108988980        0.4120591612
LA         0.0523285742       -0.9123309431       -0.4060960116
LA         0.0690873063       -0.9638178157       -0.2574532235
LA        -0.0773915627       -0.9488866048       -0.3059816289
LA        -0.4258160124       -0.0353290590       -0.9041197825
LA         0.1066108915       -0.6541916302       -0.7487772892
LA        -0.4124774967        0.9064588478       -0.0905244274
LA         0.5296983173       -0.0822799487        0.8441858224
LA        -0.8921847410        0.3954430275       -0.2182457329
LA         0.0259108035       -0.8353917776       -0.5490439037
LA        -0.6440507416       -0.0202289920       -0.7647152608
LA         0.9338512350        0.2642754662       -0.2409986492
LA         0.2174550447       -0.9546609330       -0.2033120914
LA         0.8822158332        0.4425258854        0.1608293021
LA         0.5904924695        0.7125892240       -0.3788604510
LA         0.0474585447        0.6418337080       -0.7653738810
LA        -0.0544128966       -0.9871200367       -0.1504435766
LA         0.0157501289       -0.5260038889        0.8503363113
LA         0.2739259129       -0.2386298582        0.9316761159
LA         0.2008663616        0.6496539517       -0.7332137805
LA         0.0757715797        0.9869889695        0.1418148154
LA        -0.0433266192       -0.1150736587       -0.9924116369
LA         0.2457688177        0.4090604843        0.8787873511
LA         0.7146987093        0.5843193019        0.3844173621
LA         0.7916833973       -0.2846343633        0.5405743960
LA         0.4285297334       -0.3026543340       -0.8513299136
LA        -0.0066633148       -0.7357052347       -0.6772690808
LA        -0.4315523690        0.5191707934       -0.7377155550
LA        -0.0860731126        0.8900405751       -0.4476820232
LA        -0.2021818978       -0.6424986230        0.7391332760
LA         0.1854528930        0.0000297463       -0.9826531553
LA         0.5076203571        0.8151000559       -0.2791656712
LA         0.3746171763        0.8444309870        0.3828815474
LA         0.7096874138       -0.5729757205        0.4099299920
LA         0.4798112261       -0.0191395245       -0.8771629643
LA        -0.2195095155        0.4221198630        0.8795626151
LA        -0.5060630702        0.3958449721        0.7662942823
LA         0.1421051431       -0.8016616055        0.5806417127
LA        -0.3139260084       -0.6267863510       -0.7131544934
LA         0.3832237900        0.8963837151        0.2227908481
LA         0.6510701117       -0.6873808807        0.3218932035
LA        -0.5199349919        0.5837924526       -0.6235815716
LA        -0.3349164380        0.4425618931       -0.8318473119
LA        -0.6176968711        0.7767684253        0.1228063060
LA         0.1138896457       -0.6278841656        0.7699289729
LA         0.3900997323       -0.6732825186       -0.6281025784
LA         0.2357527732       -0.8514244058        0.4685051880
LA        -0.6089367984        0.4267933118        0.6686130753
LA        -0.9221327904        0.0436120703        0.3844074715
LA        -0.3226983238       -0.8179296279        0.4762949881
LA        -0.4405124894        0.7063897406        0.5540417683
LA         0.7176342637        0.1144201810        0.6869563929
LA        -0.2875124021       -0.5232442502        0.8022169739
LA         0.0458101559       -0.7332765403        0.6783855431
LA        -0.5472742963        0.8282438126       -0.1204285330
LA        -0.1440225040        0.8005691527       -0.5816756399
LA        -0.7275090105       -0.2217490744        0.6492749708
LA         0.2651169256        0.9113326752        0.3149377254
LA        -0.0358441645        0.9632177825        0.2663206701
LA         0.7446569977        0.2142116762       -0.6321386822
LA         0.6247307096        0.7066936538        0.3321078442
LA        -0.7333003943        0.0714009278       -0.6761452797
LA         0.8749011136       -0.4634551557       -0.1405608768
LA         0.4969129487       -0.8669824632       -0.0376686850
LA        -0.9501666547        0.3078165305        0.0493184730
LA         0.1563781241        0.8377042882       -0.5232565411
LA        -0.9425487448       -0.2478332057        0.2240101913
LA        -0.7952417691        0.3039259961       -0.5246136841
LA         0.4816820211       -0.8669560288        0.1279440297
LA        -0.7003282427        0.6807475697        0.2147628896
LA        -0.6721983248       -0.6903704350       -0.2674660250
LA        -0.3692375382        0.6436744638       -0.6703333686
LA        -0.5999368923        0.2793278516        0.7497010582
LA        -0.0848114942       -0.4030855018        0.9112239509
LA         0.3840547961       -0.3186967959        0.8665646346
LA         0.9953028016        0.0472338323        0.0845062027
LA         0.9159727324       -0.2371593377        0.3236501228
LA        -0.3838850341       -0.3883560977        0.8377420976
LA         0.6724074128        0.3506004859       -0.6518800276
LA         0.9494562566        0.0008018393       -0.3138983495
LA         0.3450440947       -0.9192150505        0.1897057291
LA        -0.1079086559       -0.1280574377        0.9858788032
LA        -0.7465323547        0.6156785016       -0.2522487382
LA        -0.8093909888        0.5653530135        0.1589408613
LA        -0.7478006298        0.0342170010        0.6630410356
LA         0.6042195237       -0.4294849348       -0.6711642556
LA         0.7929574420       -0.5639797750       -0.2305326625
LA        -0.8918626178        0.4395801104        0.1065382448
LA         0.9679725416        0.2341335542       -0.0906125684
LA         0.0990940512        0.4157015750       -0.9040865941
LA        -0.4121069134       -0.1193895660        0.9032795932
LA         0.8088590709       -0.1168317334        0.5762788817
LA         0.4119758152        0.5935500161        0.6913568587
LA        -0.6916205741        0.3840249757       -0.6117072825
LA        -0.1550284201       -0.6871007597       -0.7098300747
LA        -0.3010562841       -0.9506531116        0.0749918343
LA         0.8717194610       -0.1800526895        0.4557260256
LA        -0.3097148451        0.2821915609        0.9079893379
LA        -0.8546060764       -0.5161418588        0.0569739924
LA         0.3140782468       -0.8480824927       -0.4267445846
LA         0.4847805678       -0.3930884793        0.7813253154
LA         0.6896351326       -0.6534587179       -0.3120818609
LA        -0.7893270143       -0.4990367572        0.3576662962
LA         0.7433629562        0.3660452447        0.5598414009
LA         0.9342618532        0.3030024209        0.1880008578
LA         0.1861360960       -0.4208022252       -0.8878506862
LA         0.9970356553       -0.0758669390       -0.0128105321
LA        -0.9089715063       -0.3765321566       -0.1788696055
LA         0.0697761837       -0.8825551925        0.4650028134
LA         0.1535032657       -0.9648115458        0.2134840241
LA         0.5197704847       -0.6612296413       -0.5409380785
LA        -0.9201215131       -0.3912604789       -0.0170774354
LA         0.6083608496       -0.7871037570       -0.1018074276
LA        -0.2333107425        0.3554552343       -0.9051064434
LA         0.5866124616        0.4848767922       -0.6486758176
LA         0.1964220697       -0.9156670053       -0.3506740737
LA         0.3354921957       -0.4606142029        0.8217539429
LA         0.7861240231        0.4487232116        0.4250370568
LA         0.1534032745        0.5372745884       -0.8293391659
LA        -0.8540792572        0.3621433502       -0.3733641872
LA         0.9400190638       -0.0940292002        0.3279064947
LA         0.7327750244       -0.0407053253       -0.6792524127
LA         0.4585284637       -0.8187695380       -0.3454968765
LA         0.8574944758       -0.4257282855       -0.2888921094
LA        -0.8291083263       -0.3616385031        0.4263765664
LA        -0.8575098067        0.4442458396        0.2594659232
LA         0.2262067278       -0.3781664240        0.8976751484
LA        -0.6507652445        0.7588285590       -0.0261498502
LA         0.0148548428        0.5496340877        0.8352734302
LA         0.3569627954       -0.5605803697       -0.7472129629
LA        -0.0632505331        0.8471994370        0.5274964303
LA        -0.2079556580        0.6912158586       -0.6920802563
LA         0.5625666941       -0.7221079193       -0.4025901981
LA        -0.8563673985       -0.5058211872       -0.1038258416
LA         0.6864915031        0.0996534126       -0.7202767618
LA         0.3019612520       -0.8963289223        0.3246750150
LA        -0.9956907620        0.0302571442        0.0876607765
LA         0.9377986625        0.3453988520        0.0351183943
LA        -0.3441418617        0.8722529313       -0.3474783489
LA        -0.2752886153        0.5736467235       -0.7714568134
LA        -0.0626868511        0.6630384916        0.7459559755
LA        -0.6235906232        0.0270166602        0.7812840935
LA         0.4009044380        0.3936634813       -0.8272271122
LA        -0.8948839187       -0.0665460559       -0.4413098622
LA        -0.5068335803        0.7578026444        0.4109195468
LA         0.6119102166       -0.0242949552       -0.7905540095
LA        -0.4123474939        0.1335118431       -0.9011903972
LA        -0.9108487047       -0.3890628192        0.1377851950
LA        -0.7616025815        0.4425769160       -0.4733784758
LA        -0.3648279183        0.8083587599        0.4620137501
LA        -0.5750166258        0.6519694999        0.4942586887
LA        -0.2845530880       -0.2851051628       -0.9152838829
LA         0.3743433016       -0.6564802940        0.6549051200
LA        -0.5136268103        0.2241626913       -0.8282140953
LA        -0.6457348832        0.6746342230        0.3576242802
LA         0.8017101605        0.4318697007       -0.4132183201
LA         0.8454626768       -0.3438520883        0.4086056823
LA        -0.5745103192       -0.8179117424       -0.0309560133
LA        -0.8989612524       -0.2334591121        0.3706285332
LA         0.6017091856       -0.7962995365        0.0620733767
LA         0.2460383366        0.7482627281       -0.6160909240
LA         0.8188062235       -0.3802856094       -0.4300456065
LA         0.1018793720       -0.9933490453        0.0536494891
LA         0.0320634863       -0.3990059650       -0.9163875669
LA        -0.2370665773       -0.3999491908        0.8853474362
LA        -0.8794927785        0.2222127036       -0.4208491023
LA         0.3592034789        0.8748402903       -0.3250035804
LA        -0.0809773094       -0.9006581995        0.4269162482
LA         0.5430167505        0.3764178639       -0.7506280040
LA        -0.4667630991       -0.5556456869       -0.6880334875
LA        -0.8026889908        0.4377735415        0.4050243330
LA        -0.3752606790       -0.8658878185        0.3307834768
LA        -0.5195747784        0.8540468080        0.0254184854
LA        -0.5474323130        0.1512537326        0.8230675374
LA         0.4861271170        0.6066992727       -0.6289645607
LA        -0.4797820389        0.8604973019        0.1713288900
LA        -0.4606587941       -0.8450423338       -0.2714717840
LA        -0.6809628405       -0.5319790087       -0.5032772041
LA        -0.9638435198       -0.2565318640        0.0720907214
LA        -0.8107663906        0.1556087285       -0.5643082345
LA         0.7888782852       -0.6086179644        0.0851776063
LA         0.7849044275        0.2120360809        0.5822076435
LA        -0.7295980442       -0.6241892690        0.2794180565
LA         0.5770133133       -0.7849526064        0.2256214572
LA         0.1085961746        0.9562896185       -0.2715088144
LA        -0.7802891152       -0.6248881149       -0.0257631619
LA        -0.9619431950       -0.2598769253       -0.0844350246
LA         0.7541003873        0.6351952979       -0.1669117714
LA         0.0700529566       -0.5299833031       -0.8451096270
LA        -0.4783926136        0.3786164471       -0.7923320600
LA         0.1447314517       -0.2808191099       -0.9487852415
LA         0.8461387253        0.1850578775       -0.4998028007
LA         0.5598724189        0.5498576627        0.6198382251
LA        -0.7861215845       -0.4487272658       -0.4250372869
LA         0.3033522405        0.8252712093       -0.4763453046
LA         0.5145434921        0.0889545612        0.8528376638
LA         0.4571349853       -0.7154802467        0.5283139425
LA        -0.6772832951       -0.7340006616        0.0503027526
LA         0.6805018959        0.7295591815       -0.0682683695
LA        -0.1658589988       -0.2062963891       -0.9643301262
LA         0.6510197409       -0.1634730670       -0.7412488471
LA        -0.4421945143       -0.8964517308        0.0289535109
LA        -0.4350165655        0.5173970910        0.7369266164
LA         0.8107825306        0.0461604026        0.5835245542
LA        -0.1757902075       -0.8311225112        0.5275729090
LA        -0.6422095002       -0.1870889554       -0.7433469450
LA        -0.5553219234       -0.6142973119       -0.5605857419
LA        -0.9732120784        0.1763820666        0.1474707326
LA        -0.9810714165       -0.1244444354       -0.1483659604
LA        -0.1269010892        0.2608508330       -0.9570020671
LA         0.2518370798        0.8141024723        0.5232735899
LA        -0.5530295748       -0.7599385286       -0.3415431483
LA        -0.6053447100       -0.7144164710        0.3509514040
LA        -0.1291631640       -0.3534027586       -0.9265113962
LA        -0.7383170617        0.6712018650        0.0661511356
LA         0.8089767775       -0.4819676043        0.3365468792
LA         0.1142389476        0.9508019763        0.2879671242
LA        -0.8133782971       -0.3119284698       -0.4910360226
LA         0.2611160033        0.9385488324       -0.2257089323
LA         0.5922023961       -0.6504612268        0.4756012138
LA        -0.9810507661       -0.1107474139        0.1589792584
LA        -0.9468553181       -0.0896521456       -0.3089134173
LA         0.9707127733        0.1167975994       -0.2099405452
LA        -0.5094208474        0.5833366712        0.6326205247
LA        -0.4260288484        0.8476150507        0.3163038827
LA        -0.4184503446       -0.6744191866       -0.6083239843
LA        -0.1187323522       -0.7989020435       -0.5896254349
LA         0.6083311590       -0.3091897826        0.7309821334
LA        -0.9708169351        0.0381505230        0.2367678530
LA         0.7088384712       -0.6861854155       -0.1633939940
LA        -0.7159123269       -0.3990841706       -0.5728886149
LA         0.3330534134        0.5085005762        0.7940419308
LA        -0.6527929697       -0.3745881683        0.6584413739
LA         0.0216778537        0.0143660891       -0.9996617859
LA         0.5188536716       -0.5981360023        0.6107570632
LA        -0.0013310944        0.9877355842       -0.1561302144
LA         0.8008222324       -0.5941675694       -0.0751575113
LA         0.6138432634        0.7670245096        0.1867347041
LA         0.9733172261       -0.2272651449        0.0316880320
LA        -0.8916842271       -0.2156102726       -0.3980093585
LA         0.9834676639       -0.1089809110        0.1446185155
LA         0.7551720616       -0.4391626875        0.4866737010
LA        -0.2290080090       -0.8435075003       -0.4858502123
LA         0.5123372906        0.7474577787        0.4228680286
LA         0.3940040624       -0.1580605264       -0.9054157436
LA         0.3864676258        0.7278841016       -0.5664163741
LA        -0.7980067843       -0.0920667093        0.5955744229
LA        -0.6813123495        0.1583678791        0.7146559293
LA        -0.4091319604       -0.7221609747        0.5577585191
LA        -0.7546058653       -0.3403815646        0.5609905333
LA         0.9646363501        0.1579994674        0.2109807584
LA         0.3692915996        0.1373352085        0.9191097622
LA        -0.1162044906        0.9926867681       -0.0327031608
LA        -0.0879374701       -0.4899881575       -0.8672823109
LA         0.6052566782        0.1829535030        0.7747208331
LA         0.7280369591       -0.0502838841        0.6836912440
LA         0.1742483639       -0.5083589838        0.8433318749
LA         0.2299777919        0.9577210744        0.1728599400
LA         0.7982423343        0.5291021596       -0.2878542695
LA        -0.1524451649        0.9713143577       -0.1825072332
LA         0.9052775811       -0.1137138915       -0.4093185214
LA         0.8758897505        0.4015859483       -0.2674805994
LA        -0.0296027614        0.0163150565        0.9994285845
LA         0.6903538488       -0.7059482974        0.1582673840
LA         0.7238833881        0.6491876684        0.2335555857
LA         0.7091394065        0.6999907003        0.0844649137
LA         0.9352847898       -0.3494356466       -0.0560097382
LA         0.9186919408        0.3772648410       -0.1169459606
LA         0.0905223116        0.8345123719        0.5435023572
LA         0.5273306380       -0.7573261558        0.3852005866
LA         0.8679362167        0.1453282841        0.4749383261
LA         0.0872831086        0.4222347150        0.9022746281
LA        -0.9978304747        0.0220792580       -0.0620229810
LA         0.2782311628       -0.5896248478        0.7582413593
LA         0.8477232832        0.5114401734       -0.1406918054
LA         0.9779791385        0.1998455718        0.0601544015
LA        -0.5711420075        0.4527217724       -0.6847187774
LA        -0.1154234057       -0.7433035412        0.6589213026
LA         0.7586366339       -0.6014262854        0.2505132350
LA        -0.0410544454       -0.9991321624        0.0070323949
LA        -0.1955527422       -0.9612835558       -0.1941469814
LA        -0.8462742594        0.0439954991        0.5309277483
LA         0.6310870492        0.7448651922       -0.2165755797
LA         0.0984155089        0.7490716718       -0.6551381671
LA        -0.6070006712        0.3080588137       -0.7325639580
LA         0.1057574415       -0.1331380547       -0.9854387967
LA        -0.7636770803       -0.6324220872        0.1297675638
LA         0.0398199695        0.2879928361       -0.9568043146
LA         0.2518048404       -0.6712285029       -0.6971704378
LA         0.1708659276       -0.8511324016       -0.4963652583
LA         0.5188948052        0.6911740304       -0.5030175353
LA        -0.6883137794       -0.7177216722       -0.1053553144
LA         0.2424316788       -0.9651119894        0.0989228438
LA         0.7990588703        0.0733476816       -0.5967621297
LA        -0.4570518293        0.2741957138        0.8461207572
LA        -0.3617445862       -0.7786844806       -0.5126317723
LA        -0.6128869257       -0.2440013253        0.7515537038
LA        -0.5277363501       -0.2729141056       -0.8043707079
LA         0.5584349015        0.1159436817       -0.8214058214
LA         0.3643171763       -0.9223357859       -0.1287233203
LA         0.1711771664        0.5350014774        0.8273281071
LA        -0.0955827220        0.1562833600        0.9830765253
LA         0.3441637311        0.2687354085       -0.8996291494
LA         0.9118692312        0.2319016740        0.3386976804
LA        -0.8244210250       -0.1639162296       -0.5417208167
LA        -0.2668529421        0.9619950147       -0.0579232154
LA        -0.2910590760        0.7490541735        0.5951491070
LA        -0.2999666657        0.9315235876       -0.2056302635
LA        -0.1946589344        0.9241313227       -0.3287692165
LA         0.3084463591       -0.7631067705        0.5679162793
LA        -0.1829442621        0.0119834781        0.9830502496
LA        -0.9773025913        0.0143403564       -0.2113622464
LA         0.0601674710        0.1592903110        0.9853966066
LA         0.7896210105        0.6132508280       -0.0205446247
LA         0.6278671300        0.4194375218        0.6556333064
LA        -0.1275420978       -0.9533759791        0.2735091513
LA        -0.0681538174        0.4279112239        0.9012474919
LA        -0.5847493471        0.6500120435       -0.4853375571
LA        -0.8097960386        0.4938216038       -0.3168131934
LA         0.4448813215        0.7918581316       -0.4183793843
LA        -0.1389728808       -0.5290323960        0.8371447081
LA        -0.3793051732        0.2932304700       -0.8775781886
LA        -0.4268313422       -0.5088888043        0.7475608271
LA        -0.2613308502       -0.7408233923       -0.6187785453
LA         0.6147114027        0.5855675092       -0.5284321940
LA         0.8722331471       -0.4888838621        0.0142093786
LA         0.4148371090       -0.0108661481        0.9098308084
LA         0.8707042211        0.3797363921        0.3125290896
LA        -0.1401272567        0.5504660540        0.8230136544
LA        -0.6792225334       -0.5995693060        0.4232887872
LA         0.3471212358        0.6358096422       -0.6893859199
LA        -0.2490288314        0.1500533609        0.9568012490
LA        -0.8759950192        0.1760483056        0.4490431165
LA        -0.9390513040       -0.2387093017       -0.2473873840
LA        -0.6283254137       -0.3416585383       -0.6989110228
LA        -0.1113108323        0.6138855104       -0.7815078238
LA         0.9736518569       -0.1950518625       -0.1181390387
LA         0.6054968471       -0.5436929916       -0.5811811242
LA         0.4668511383        0.2389272811        0.8514480424
LA        -0.8105931827        0.3016463241        0.5019444066
LA         0.5564897122       -0.3041254354       -0.7731926796
LA         0.9946442361        0.0824686748       -0.0623037815
LA        -0.2144443579        0.8404490449        0.4976535143
LA        -0.5017949565        0.7660048731       -0.4017939225
LA         0.5929831358       -0.7633155223       -0.2563599307
LA        -0.6839938102       -0.0979536694        0.7228814192
LA         0.2844592856       -0.7713482760       -0.5693019867
LA        -0.1406224632        0.7629026302        0.6310347848
LA        -0.0899502022       -0.8879883404       -0.4509830024
LA        -0.6646427742        0.7253301038       -0.1792936787
LA        -0.5045749924       -0.4219730580       -0.7532216243
LA        -0.5573966592       -0.4822815336        0.6758058055
LA        -0.3353361681        0.0114041579        0.9420295110
LA        -0.9738164850        0.1569213706       -0.1644905380
LA         0.2801466987        0.0040984765        0.9599484516
LA         0.4048058949        0.3781962250        0.8325261575
LA        -0.8192717342       -0.0073001881       -0.5733589911
LA         0.1224315263       -0.2593285799        0.9579974995
LA        -0.9267465667        0.3141736968        0.2059992461
LA        -0.0070634897        0.5230644201       -0.8522638791
LA         0.8337859695       -0.0714872271       -0.5474399816
LA        -0.5699097011        0.7764854778        0.2688368191
LA        -0.3783238901        0.9238097494        0.0587075899
LA         0.7205316982       -0.2197771421        0.6576717112
LA         0.7140929055       -0.4665113830       -0.5219563697
LA        -0.8309411154       -0.2183146758        0.5117377894
LA         0.5533605551        0.3322095099        0.7638252010
LA        -0.3602514524       -0.4992771187       -0.7879982549
LA        -0.4750229669       -0.2464908293        0.8447457914
LA        -0.7098830680        0.5704909147       -0.4130449684
LA        -0.0201709885        0.1526217049       -0.9880788159
LA        -0.5528918174       -0.8244568961        0.1207537361
LA         0.7104940220        0.5613740704       -0.4243317072
LA         0.3888989204       -0.1535458872        0.9083948977
LA         0.3322305038       -0.4336510034       -0.8375975762
LA        -0.1678483691       -0.0421651154       -0.9849106701
LA        -0.3238164433       -0.9426947027       -0.0804338771
LA        -0.3973484007       -0.3576707903       -0.8450951746
LA        -0.0474583078       -0.6418298811        0.7653771049
LA         0.5029200781        0.8158342695        0.2854572466
LA         0.8718601362        0.2967408256       -0.3896213357
LA         0.9855574044       -0.0389576662       -0.1647995838
LA         0.3895470444        0.7692614509        0.5064483393
LA         0.8753941431        0.4833321928        0.0086651926
LA         0.8412101792       -0.2265433535       -0.4909618553
LA         0.6904313051       -0.3775857833        0.6170361329
LA        -0.3320036021       -0.9137471995       -0.2341787001
LA        -0.9928554852       -0.1191399795        0.0066068753
LA        -0.9274731286        0.2539183338       -0.2744432099
LA        -0.4154473594       -0.8916795833        0.1797526418
LA        -0.5816323920       -0.7923506039       -0.1840768349
LA         0.3045445635        0.5285127849       -0.7924183523
LA        -0.0778800961        0.9900077400        0.1175557967
LA         0.2525533500       -0.1483072361       -0.9561494492
LA         0.0470309148       -0.1231909227        0.9912679202
LA         0.9267452962       -0.3141776833       -0.2059988817
LA        -0.8723261880       -0.3546565659       -0.3365497616
LA        -0.5396707476       -0.1115404389       -0.8344544414
LA         0.7646569330       -0.5213670791       -0.3787824489
LA         0.4489938210       -0.8464570120        0.2862080984
LA         0.9520909207       -0.2438181623        0.1845957271
LA         0.7081768988       -0.7060147697       -0.0053502336
LA        -0.2231196840       -0.9106882323       -0.3476557927
LA        -0.4403172416        0.8648329733       -0.2412149560
LA        -0.7353625403       -0.2536645239       -0.6284077050
LA        -0.3648343637        0.4087229064        0.8365652831
LA        -0.0037678709        0.2957737938        0.9552505776
LA         0.2123011487        0.9014674457       -0.3772063980
LA        -0.2993289696       -0.1223765486       -0.9462695960
LA         0.9730846628        0.0085364424        0.2302897485
LA        -0.8800301462        0.3126331207        0.3575017115
LA         0.8961373233       -0.2714382729       -0.3510828416
LA         0.1247252968        0.0191793432        0.9920059239
LA         0.8080834180        0.5751289150        0.1273888560
LA        -0.6222523421       -0.5446359430        0.5622932619
LA         0.0697871005       -0.3978333802        0.9147996295
LA         0.4489144713        0.5063535377       -0.7362621084
LA        -0.9490835441        0.2948963699       -0.1107996268
LA        -0.0081330561       -0.2606276004       -0.9654051519
LA        -0.8799409741       -0.3795995832        0.2856712069
LA         0.5496673906        0.8267069268       -0.1200892037
LA        -0.3004160235        0.0403870433       -0.9529528318
LA         0.1760130872        0.8877514111        0.4253431852
LA         0.1731972315        0.7438447259        0.6455212954
LA         0.3375497198       -0.0114727980       -0.9412377816
LA         0.2785132343        0.1343254478       -0.9509926668
LA         0.3088801530        0.9480006508       -0.0767321132
LA         0.4340144106       -0.5325452147        0.7266547225
LA        -0.7401451768       -0.5748405187       -0.3489176053
LA         0.2133682146       -0.7040890723        0.6772980018
LA         0.2177337603        0.1500412388        0.9644063647
LA         0.6327037799       -0.1518003612        0.7593698554
LA         0.1935983894        0.9807281648        0.0263045689
LA        -0.3690557829       -0.8463146157       -0.3841215958
LA        -0.5523202442       -0.6708981481        0.4948110980
LA         0.7548280224       -0.3348472024       -0.5640141910
LA         0.2907583935       -0.2950943088       -0.9101532319
LA        -0.0037344437       -0.9859225404        0.1671609952
LA         0.4139064217        0.8926907937       -0.1782824190
LA         0.3112666497        0.2760521277        0.9093449816
LA        -0.9367601885        0.1803361016        0.2999320584
LA        -0.4690843248       -0.7774981969        0.4188752201
LA         0.3747079528       -0.9267459065        0.0271288582
LA        -0.8333338042       -0.4852434732       -0.2647518507
LA        -0.9026868570        0.4269374501       -0.0536735687
LA        -0.9408630905        0.0985992109       -0.3241216446
LA        -0.1838212196       -0.9822330517       -0.0377887723
LA        -0.4180756925       -0.1999624285       -0.8861307706
LA        -0.1546958931       -0.9805658710        0.1206638023
LA        -0.5165222660       -0.8121784552        0.2712395724
LA         0.1547236472        0.2892434098        0.9446686418
LA        -0.7391882930       -0.0971114811       -0.6664608223
LA        -0.0239110822       -0.8235644340        0.5667185220
LA        -0.8357236908        0.5262144797       -0.1570485084
LA        -0.6290771826        0.5302342073        0.5684308082
LA         0.2535362647        0.4093525463       -0.8764415869
LA        -0.0439480497       -0.6173882758       -0.7854300006
LA        -0.5574322075       -0.1140311999        0.8223540719
LA         0.6815776769        0.2751774707        0.6780333546
LA         0.6822279858        0.5066847875        0.5271010354
LA        -0.0438495104        0.9513876111       -0.3048587113
LA         0.6051316425        0.6340100285        0.4815049108
LA        -0.8863019975        0.0761827066       -0.4567986037
LA         0.2512649363        0.6287051176        0.7359319309
LA         0.0628347430        0.9060260504       -0.4185314697
LA        -0.2729942027        0.1997996158       -0.9410389359
LA        -0.3474602352       -0.6339502347        0.6909258172
LA         0.0062245272        0.8294360058       -0.5585670662
LA         0.3863392117       -0.8147177713        0.4324083331
LA         0.2050549198       -0.1176419286        0.9716547002
LA        -0.1863056375        0.9525714853        0.2406195643
LA         0.6469068939       -0.5245690341        0.5534788154
LA        -0.8340014470        0.5517301690        0.0059503786
LA        -0.6476657756        0.5225715539       -0.5544799493
LA        -0.2033949276       -0.5653474509       -0.7993827389
LA        -0.7275315715       -0.4689217095        0.5008095874
LA         0.3472545692        0.9347491109        0.0752220966
LA         0.6719343435       -0.3011592904       -0.6766146021
LA        -0.7580718359        0.6460718270       -0.0889847512
LA         0.4713952396       -0.4362449302       -0.7664704097
LA        -0.4586445476       -0.8802008020       -0.1220316640
LA        -0.3624551774        0.6407748235        0.6767819959
LA         0.8490701558       -0.4990216046        0.1733704376
LA        -0.5575789489        0.7852240057       -0.2693120431
LA        -0.9856740830        0.1684942128       -0.0075034866
LA        -0.4854458421       -0.6103746915        0.6259273683
LA        -0.8863251935       -0.0886084707        0.4545065350
LA         0.4871650388       -0.5570202204       -0.6726059017
LA         0.4843193274       -0.8529018867       -0.1949183437
LA        -0.2285489624       -0.8959593063        0.3808179267
LA        -0.2293791105        0.9690765412        0.0909718692
LA        -0.3772454539        0.7991346141       -0.4680488608
LA         0.0179242894       -0.9487541665        0.3155063412
LA         0.7613069949       -0.1824132049       -0.6222034090
LA        -0.6409217835        0.6856596576       -0.3450943369
LA        -0.8318979638       -0.5135345411        0.2103046668
LA        -0.1553181306        0.1007867362       -0.9827096784
LA        -0.2146456209        0.6604389659        0.7195468225
LA        -0.4010380153        0.1446656568        0.9045663922
LA         0.2175677245       -0.5518808782       -0.8050414782
LA        -0.4864507396        0.0153533382        0.8735730954
LA         0.1406257800       -0.7628988227       -0.6310386489
LA         0.6296700950        0.0182957105        0.7766471775
LA         0.4221470025        0.1251220502       -0.8978509792
LA        -0.7053370682        0.5553068619        0.4406062974
LA         0.3435179830       -0.8965571737       -0.2796079928
LA         0.8850155346       -0.0235921631        0.4649633463
LA         0.9308246811        0.0763065405        0.3574111427
LA         0.4935542518        0.8602585482        0.1279039903
LA         0.8880799054        0.0401083504       -0.4579360238
LA        -0.1804688677       -0.2678367470        0.9464113613
LA        -0.2475682047       -0.4314982327       -0.8674786794
LA         0.5082879491       -0.2352119604        0.8284435373
LA         0.0371736897        0.9992900802       -0.0061198320
LA         0.5275489787       -0.1625997105       -0.8338185709
LA         0.3246686404        0.7062155975        0.6291659588
LA        -0.6489778792       -0.7332830912        0.2027895966
LA         0.0132047770        0.7583567758        0.6517059417
LA        -0.0531806687        0.7290719309       -0.6823678891
LA         0.2350684502       -0.9705347024       -0.0529642827
LA        -0.0288471242       -0.2665753173        0.9633822936
LA        -0.2729517601       -0.9345365964        0.2283389732
LA        -0.2319691105        0.8535857390       -0.4664565553
LA        -0.3345599293        0.9192782946        0.2073573504
LA        -0.1740663897        0.4908532302       -0.8536767529
LA         0.8901925157       -0.3774645689        0.2551034776
LA        -0.7724304762       -0.6070003961       -0.1868199093
LA        -0.2652598677       -0.7416193001        0.6161477228
LA         0.1952548340        0.2806890131       -0.9397282734
LA         0.0949598979        0.6557253345        0.7490039409
LA         0.4544734481        0.8904792431       -0.0223741516
LA        -0.6314353258        0.1484333715       -0.7610893269
LA         0.8377878637        0.3018474253        0.4549721170
LA         0.1303548880        0.1443112642       -0.9809086921
LA        -0.4931176094       -0.7323022291       -0.4696471746
LA        -0.1584830520        0.2922969020        0.9431042590
LA        -0.7174523072        0.2345151382       -0.6559457576
LA         0.8077882517        0.5193591832        0.2788264321
LA         0.4800966678        0.6666623961        0.5701477345
LA        -0.2894061445        0.5415156903        0.7893065568
LA         0.0896319904       -0.9906429974       -0.1029201533
LA        -0.5229349366       -0.3683923576        0.7686521469
